**$ENCRYPTED_LIB
**$INTERFACE
*$
* TPS40200
*****************************************************************************
* (C) Copyright 2012 Texas Instruments Incorporated. All rights reserved.                                            
*****************************************************************************
** This model is designed as an aid for customers of Texas Instruments.
** TI and its licensors and suppliers make no warranties, either expressed
** or implied, with respect to this model, including the warranties of 
** merchantability or fitness for a particular purpose.  The model is
** provided solely on an "as is" basis.  The entire risk as to its quality
** and performance is with the customer
*****************************************************************************
*
* This model is subject to change without notice. Texas Instruments
* Incorporated is not responsible for updating this model.
*
*****************************************************************************
*
** Released by: WEBENCH Design Center, Texas Instruments Inc.
* Part: TPS40200
* Date: 28AUG2012
* Model Type: AVERAGE
* Simulator: PSPICE
* Simulator Version: 16.2.0.p001
* EVM Order Number: TPS40200EVM-001
* EVM Users Guide: SLVU147C
* Datasheet: SLUS659F FEBRUARY 2006 REVISED MARCH 2012
*
* Model Version: Final 2.00
*
*****************************************************************************
*
* Updates:
*
* Revision B, 8/16/07
* Revision C, 10/16/07 - Updated average model
* Revision D, 11/06/08 - Model updated for discretes.
* Revision E, 10/12/2009 - model updated to add parameters
*
* Final 2.00
* Fixed model to use parameters passed externally.
*
*****************************************************************************
.SUBCKT TPS40200_AVG VDD Out FB Comp gnd PARAMS: L=33u NC=1 NP=1 RB=10m F=300k EFF=1 TS=0 DMAX=0.95
$CDNENCSTART
eee8c5c7a2bc4b01f045f303678664e7916da0bae22e8cb0bba041dd67c69ce448ea70148a9ac1670c8926c1ac5057c8ccfcd77bf87ca9dc7d2fa2989ebde990
069a64161dd6e92ed89ffa362fcbdfe16fdd67e6a88395b4e0468bb11745012853b3b61835c9467c756aef3e1de1d558398dfcca35814d8a63183a8e61e360d3
d7837ceea8f8c9f77badc2d1b48c8f9e147e97d28b05962e89be8926511da330603fbd35f5d64751c8c135ef1c1ec44eba51d024fc68d4a66cbeeb447eebb04a
547d1e5731e5c8da8915af4b9e00feb0524b7b5bc978e4ea0b02e3238a69c3921a6b5dadc262caa6fda0644c4a73f2b3664334281c85f29fa739a32c8821cd49
a027c895f2bef335a0dfcbe9811e90a718751c40c3279088118978e99e2634ff3cb7972c91b5cbdc48c5166de4dd482522bad8523f67fbaad514f2455cb6f095
8d4378728875d477e7eb8546cf2f223dec418e4ad6ef0560ccabffc181363e7ea5e8f84780261c9ae0468bb11745012853b3b61835c9467c64133a0e2a83bcfe
16a184db89a8f9bd3099ddfd49cb5a48e5249bf448dad1a6686d497032dbcb59187742d04009e228beddee994607669526119e1c55b8d4542be3cff1014f25d5
cf9486303233cc7d3de47feef4c25986644126c9831a96bd5821e10fee6a5cdecf7c6829d46754eaaf76355f05e0e8ba10aaf3c2eafa201f2a86419a6edf7351
8d4378728875d477b4849cf9b35993dc4dd2d25f8d43dd1460459344dd53ddf208e2560d86d09dfde5249bf448dad1a6686d497032dbcb596c46bdce2a6debd6
c580c2581f3eaceb36c44a61fa6fa6995f23ead947e3bbfa8e7dd046ba0f41378285f14fa228b019996c0ff481a6ab0719835a70ede415f89848596b0ad02c91
4aaf180ddd3bd66f0110efc2ca4d8df7d34337421f845b8bead0c4ac9e556ccb8b2cc2a0903bb5322985cbba7e27b38de0468bb117450128b44805021733ef0e
bdf52e419ecbaf13f1596e3b6ef25776679c6435e63fa9e3399d8e5c52168510958e95eb61a82ba32ba6e6571cedf25a2790de423ba7fb3050c67027d4442f65
21ca7b31c4078b38589e911e9a175b45d0ef89528d5c38aeaaeb3fd6ad9de7aa92e0e002496ce53f3b4a39d7abcb60c28be2db21c4fc623450ec4e11cad6419e
964385cbf263d2b52677961a80765a53e5249bf448dad1a6686d497032dbcb59187742d04009e228beddee994607669526119e1c55b8d4542be3cff1014f25d5
88f59dd6306caf7da55bcef21723ec86e5249bf448dad1a6686d497032dbcb59187742d04009e228beddee994607669526119e1c55b8d4542be3cff1014f25d5
406905ee2e01af6a089ff607ff9e0a790c0dfd78a237bcdf524b7b5bc978e4ea0b02e3238a69c3921a6b5dadc262caa6fda0644c4a73f2b38065aff17c0c6fa0
8c1cb03d5864b4a42ac853584b8176892719f2597dd92bd6327bc4dc90c9d776c2356fa0b0fe3ea9e0468bb11745012853b3b61835c9467c64133a0e2a83bcfe
*X1 5 2 LIMIT PARAMS: K=1 PLIM=1 NLIM=0
8c1d324d9998975629c1d209aa92aa9827e30f90fe5f995a107b558c508486957e07bc44602857d8147e97d28b05962e89be8926511da3308945778d1e9fba1f
*R10 gnd gnd1 1n
$CDNENCFINISH
.ENDS TPS40200_AVG 
*$
.SUBCKT FORWARD VINp Rtn Vc Vout Dr PARAMS: L=33u NC=1 NP=1 RB=10m F=1e6 EFF=0.95 TS=0 DMAX=0.95
* VINp RTN VC VOUT Dr
*Used for voltage or current mode forward converters
*{L} Output inductance in Henries
*{NC} Current transformer turns ratio
*{NP} Power transformer turns ratio
*{F} Switching frequency in Hz
*{DMAX} Duty Cycle
*{EFF} efficiency
*{RB} Current transformer burden resistor in ohms
*{TS} Propagation delay time in the current loop
*
$CDNENCSTART
eee8c5c7a2bc4b01f045f303678664e7916da0bae22e8cb0bba041dd67c69ce448ea70148a9ac1670c8926c1ac5057c8ccfcd77bf87ca9dc7d2fa2989ebde990
de07d12f6585088ba213820bbd0d8c327c031c82c05156b0162b4d9c430d0d0f4e684d685ffd1be4c7ad591b99879d1311b904d22aa0e594ce962da42d1351b0
*B1 IS INPUT CURRENT
e31923edd44138207479ba82316c9141fa16b58b2414befad5592602f411439aa1c61778d5bde3e23e376e4a6a7d3fa1147e97d28b05962e930c5b7668fcb820
*B2 IS PEAK INDUCTOR CURRENT
f5151206a3f5089a7479ba82316c9141696be0dd9ed3f8441ab8b04464dac714303921a03a258edab346727b6f30794b6001242c4e34a626438cbf3b4f7a6c35
0651b119a2ff028cdea05eee15b8b94cc638c705f33863f6d56b4ef911a4228c57ec5a03014fbc4611b904d22aa0e594aaeb3fd6ad9de7aaf99909b652d43c3b
*B3 IS MINIMUM INDUCTOR CURRENT
169fa74b3dae62bf7479ba82316c9141696be0dd9ed3f8442d3b7b001100290dea9abfeacb9251faeb17116d44c7b175ea9abfeacb9251fa32dd6d08bb32debd
5027f7ff181bce5cbc20f9965dbea68b7bce9ce7cd6f258e954ba8fdd20d7394040397452ddd0415e0468bb11745012853b3b61835c9467c64133a0e2a83bcfe
018c415c30693cf0337aa36f612ee70552ce08f76fbb08c01887f0ba3ce034cb7b37480ff21729245027f7ff181bce5cbc20f9965dbea68b31c8ba0fde782eb7
e0e0caf8160266b7aa5bd6bd1e70b6c918751c40c3279088118978e99e2634ff3cb7972c91b5cbdc48c5166de4dd482522bad8523f67fbaad514f2455cb6f095
*B4 IS OUTPUT CURRENT
54291fea29d1003a03772974871b4b4b04ae7fd8db9064418549cd5d7671352117db99cb3b2befe10185c5ccc0cc5d4c66fccfd94b13e5e3902393445363f951
de985c3defde1c717a31d032db38ae296443d35ba2b31c8bae3465fe1bfde6945bfd8fa2bc8864d2b2b3c756db48574c72183ceeb7c9e91b28579ccfb7399849
*B5 IS DUTY CYCLE
66c986cb98a1baffa9e878cf25b9d450167ba0e4b0606ad5429459c09b310fd6b1158fb92dd5855586dc498d13b1693f2e563adb1218d0e76ce07347a843268d
74f0f18d77ab6f48fb92f4c9303d3d39147e97d28b05962e89be8926511da330603fbd35f5d64751c8c135ef1c1ec44eba51d024fc68d4a66cbeeb447eebb04a
8e8bcc7e284ddb11ebb1122fb785bcc518751c40c3279088118978e99e2634ff3cb7972c91b5cbdc48c5166de4dd482522bad8523f67fbaad514f2455cb6f095
d7072740a938f0e7ab32fd962613d3f701bbc0fbba807211d932529432703d89399d8e5c52168510958e95eb61a82ba32ba6e6571cedf25a9b81f81cbe6cf4a2
d3ffc357879789fc98d7e8c99b08c8ff61b208a8c6eb78894ebead4a4052df8c25460125f124ea1fa95a3249b1e26701e71f71e187584171b32d695513178f1b
d59e47431d51ca2d6408f9d2cfceaedbe0468bb11745012853b3b61835c9467c756aef3e1de1d558398dfcca35814d8a88a3dab188255b676cb5cb71a83612fe
$CDNENCFINISH
.ENDS
*$
.SUBCKT DIVIDE40200 10   8   3
*Connections:  InN InD Out
* V4 = V1 / V2
* EB1 4 0 Value = { V(1) / V(2) }
$CDNENCSTART
eee8c5c7a2bc4b01f045f303678664e7916da0bae22e8cb0bba041dd67c69ce448ea70148a9ac1670c8926c1ac5057c8ccfcd77bf87ca9dc7d2fa2989ebde990
eb54d67263ebd1adb637731fe374428ae5249bf448dad1a6686d497032dbcb59187742d04009e228beddee994607669526119e1c55b8d4542be3cff1014f25d5
7cab2c189818b6f8fbb49cd70df417a70acd785b9f2fe8ebaaeb3fd6ad9de7aa92e0e002496ce53f3b4a39d7abcb60c28be2db21c4fc623450ec4e11cad6419e
fe43564112d45ab1e0a2192016d231601614f8a47dcfd5801c3928b79cc3d5c0b452a590af3627e23b97eaec23b1e0d918751c40c3279088cc6f914c72a0f1fc
a4a4f78b241ce61090ca381a5484c2f918751c40c3279088118978e99e2634ff3cb7972c91b5cbdc48c5166de4dd482522bad8523f67fbaad514f2455cb6f095
a635ebb707624f0507d58182bdd3081d959b84f754dee25c524b7b5bc978e4ea0b02e3238a69c3921a6b5dadc262caa6fda0644c4a73f2b38065aff17c0c6fa0
$CDNENCFINISH
.ENDS
*$
.SUBCKT GAIN40200  1 2 
*Connections: In Out
$CDNENCSTART
eee8c5c7a2bc4b01f045f303678664e7916da0bae22e8cb0bba041dd67c69ce448ea70148a9ac1670c8926c1ac5057c8ccfcd77bf87ca9dc7d2fa2989ebde990
c181159de9c83549dabf5fb79936658018751c40c3279088118978e99e2634ff3cb7972c91b5cbdc48c5166de4dd482522bad8523f67fbaad514f2455cb6f095
$CDNENCFINISH
.ENDS
*$
.SUBCKT TPS402AMP  REF8 GND NINV FB  COMP ENABLE
*                  REF8 GND NINV INV OUT  ENABLE
* Q1 5 NINV 6 _Q1_MOD
$CDNENCSTART
eee8c5c7a2bc4b01f045f303678664e7916da0bae22e8cb0bba041dd67c69ce448ea70148a9ac1670c8926c1ac5057c8ccfcd77bf87ca9dc7d2fa2989ebde990
166af9f70fb66cf9f2ec2b2cf1e6c6654813c8d6ea1d0f8818751c40c3279088118978e99e2634ff3cb7972c91b5cbdc48c5166de4dd4825b421af3b3756338f
8d4378728875d477f5997e9a831e78a0ef73b26f6ae9018bd61947a02bad83702a2aa286a3f8c39f147e97d28b05962e89be8926511da3308945778d1e9fba1f
f15ac8dad6e2fd7b598fff3a2f523fd6ce507ecd0c82c41b524b7b5bc978e4ea0b02e3238a69c3921a6b5dadc262caa6fda0644c4a73f2b38065aff17c0c6fa0
8d4378728875d477ba8357b41b0209f4ef73b26f6ae9018bd61947a02bad83702a2aa286a3f8c39f147e97d28b05962e89be8926511da3308945778d1e9fba1f
a9c7a4bd6eebaede7feff39a19bbbddd399d8e5c52168510958e95eb61a82ba32ba6e6571cedf25a2790de423ba7fb30db6e664232f47bb3c486e1b7bd9c7d5d
19aae4bb5029e827e7cdf495f9a745f4399d8e5c52168510958e95eb61a82ba32ba6e6571cedf25a2790de423ba7fb30db6e664232f47bb3c486e1b7bd9c7d5d
9113a64622940027925f4c66e998f294571415143e3e61685821e10fee6a5cdecf7c6829d46754eaaf76355f05e0e8ba10aaf3c2eafa201f2a86419a6edf7351
8d4378728875d477b475b0b89a2b04e7bbc78bca70531c38bcfc29fe31f4c188147e97d28b05962e89be8926511da330603fbd35f5d647513441fdc9caa958ac
9d6988844345ac6470c6ecb405c9534d147e97d28b05962e89be8926511da330603fbd35f5d64751c8c135ef1c1ec44eba51d024fc68d4a66cbeeb447eebb04a
abbde1b79f17c850a9c30ced21f87370427e961148be97c4aaeb3fd6ad9de7aa92e0e002496ce53f3b4a39d7abcb60c28be2db21c4fc623450ec4e11cad6419e
a409c9f49f071a26b33417276802d758147e97d28b05962e89be8926511da330603fbd35f5d64751c8c135ef1c1ec44eba51d024fc68d4a66cbeeb447eebb04a
8d4378728875d477d57c281ebffbb7d2aaeb3fd6ad9de7aa92e0e002496ce53f3b4a39d7abcb60c28be2db21c4fc62345d5e02725741b60319be1824f67954d3
3ed63196d23806b463b14e0cab00f7139aacae35e521587a5821e10fee6a5cdecf7c6829d46754eaaf76355f05e0e8ba10aaf3c2eafa201f2a86419a6edf7351
e748b72c107dc55a9e78c5ed82231df3e5249bf448dad1a6686d497032dbcb59187742d04009e228beddee994607669526119e1c55b8d4542be3cff1014f25d5
1dbc12715bb86361292cb38c7496c14ee5249bf448dad1a6686d497032dbcb59187742d04009e228beddee994607669526119e1c55b8d4542be3cff1014f25d5
48f4f1d20b7ddb0e2f3c0944a71442a536a8238a25b722795821e10fee6a5cdecf7c6829d46754eaaf76355f05e0e8ba10aaf3c2eafa201f2a86419a6edf7351
a01df7c0e3ae7ff98a8f6925cc68fcdee406b50cbe69c864e065714bd370559e8474e3c00ba69ef01618417ca5ac8970aa5bd6bd1e70b6c9cf8435d72360a778
73635883412b7811f76245872cd17b83147e97d28b05962e89be8926511da330603fbd35f5d64751c8c135ef1c1ec44eba51d024fc68d4a66cbeeb447eebb04a
5dda22caffd6738f31f7f0bfcbfd8b443147dd1056cbddba70d9225d06d5f0b6dce8e8a674876c1fe601f2fae2f13743b5f1c17ee79563037d2fa2989ebde990
65262e8ac855cd68ba7a789652e69a06108e528828f8c6705821e10fee6a5cdecf7c6829d46754eaaf76355f05e0e8ba10aaf3c2eafa201f2a86419a6edf7351
d7072740a938f0e722c2a8d764001bd94caae094e4be791b2390d581e4a88460cedc7dd361997faa072f24ce59395d8095baa93151a4d8c951abe8673932384d
42c0bbea27b6123db910a822e26a7d92698a4b0ac857c5af1f2886e0f82ae61829b92a3f819580e829cfc936d96b5180e5249bf448dad1a61179d759065ae1ca
b5da227165bd6c4b9874ccad01e58221e5249bf448dad1a6686d497032dbcb59187742d04009e228beddee994607669526119e1c55b8d4542be3cff1014f25d5
$CDNENCFINISH
.ENDS
*$
.SUBCKT LDCR IN OUT
+ PARAMs:  L=1u DCR=0.01 RPAR=0.01
$CDNENCSTART
eee8c5c7a2bc4b01f045f303678664e7916da0bae22e8cb0bba041dd67c69ce448ea70148a9ac1670c8926c1ac5057c8ccfcd77bf87ca9dc7d2fa2989ebde990
db934ce134227cd2089b2a21279ca8a431933be304072366069950c217c044dfe5249bf448dad1a6686d497032dbcb59187742d04009e2281e16ace48b496c12
961a7f15e10f59db663733dbd667a43fce6ff17db43f8c8b8046a58e1294371f147e97d28b05962e89be8926511da330603fbd35f5d647513441fdc9caa958ac
f3b171171f5ecdbd070ad78826a995deb9105f67ae983ab5887641732d91b721e5249bf448dad1a6686d497032dbcb59187742d04009e2281e16ace48b496c12

*L             IN 1  {L} 
*RPAR          IN 1  {RPAR}     
*RDCR	      1 OUT {DCR}
$CDNENCFINISH
.ENDS LDCR
*$
.SUBCKT CESR IN OUT
+ PARAMs:  C=100u ESR=0.01 X=2 ESL=1n
$CDNENCSTART
eee8c5c7a2bc4b01f045f303678664e7916da0bae22e8cb0bba041dd67c69ce448ea70148a9ac1670c8926c1ac5057c8ccfcd77bf87ca9dc7d2fa2989ebde990
e1672f4adc29770800efc9dbe19b7b53147e97d28b05962e89be8926511da330603fbd35f5d64751c8c135ef1c1ec44eba51d024fc68d4a66cbeeb447eebb04a
badcf797d2fb41d0f324d31de9b2a668e5249bf448dad1a6686d497032dbcb59187742d04009e228beddee994607669526119e1c55b8d4542be3cff1014f25d5
11785ed307c1f42a905a4ffaa1babe188c24b2d34fef1200147e97d28b05962e89be8926511da330603fbd35f5d64751c8c135ef1c1ec44e8553a901616a2cf3
$CDNENCFINISH
.ENDS CESR
*$
.END

