Version 4
SHEET 1 1060 680
WIRE -368 -176 -368 -208
WIRE -240 -176 -240 -208
WIRE -96 -176 -96 -208
WIRE -368 -48 -368 -96
WIRE -240 -48 -240 -96
WIRE -96 -48 -96 -96
WIRE 432 64 368 64
WIRE 528 64 496 64
WIRE 816 64 752 64
WIRE 960 64 896 64
WIRE -96 96 -368 96
WIRE 128 96 16 96
WIRE 464 112 448 112
WIRE -368 128 -368 96
WIRE -96 128 -128 128
WIRE 64 128 16 128
WIRE 832 128 816 128
WIRE 464 144 464 112
WIRE -96 160 -208 160
WIRE 64 160 64 128
WIRE 64 160 16 160
WIRE 176 160 64 160
WIRE 256 160 176 160
WIRE 368 160 368 64
WIRE 368 160 336 160
WIRE 432 160 368 160
WIRE 832 160 832 128
WIRE 528 176 528 64
WIRE 528 176 496 176
WIRE 576 176 528 176
WIRE 624 176 576 176
WIRE 752 176 752 64
WIRE 752 176 704 176
WIRE 800 176 752 176
WIRE -96 192 -240 192
WIRE 64 192 16 192
WIRE 432 192 368 192
WIRE 960 192 960 64
WIRE 960 192 864 192
WIRE 1008 192 960 192
WIRE 1056 192 1008 192
WIRE 800 208 752 208
WIRE -128 224 -128 128
WIRE -96 224 -128 224
WIRE 128 224 16 224
WIRE 464 240 464 208
WIRE 480 240 464 240
WIRE 832 256 832 224
WIRE 848 256 832 256
WIRE -368 272 -368 208
WIRE -128 272 -128 224
WIRE 64 272 64 192
WIRE 368 272 368 192
WIRE 752 272 752 208
WIRE -368 400 -368 352
WIRE -240 432 -240 192
WIRE 1056 432 1056 192
WIRE 1056 432 -240 432
FLAG -368 -48 0
FLAG -240 -48 0
FLAG 368 272 0
FLAG 752 272 0
FLAG -96 -48 0
FLAG 64 272 0
FLAG -128 272 0
FLAG -208 160 ve
IOPIN -208 160 In
FLAG 128 96 vdd
IOPIN 128 96 In
FLAG 128 224 vss
IOPIN 128 224 In
FLAG 448 112 vdd
IOPIN 448 112 In
FLAG 848 256 vdd
IOPIN 848 256 In
FLAG 480 240 vss
IOPIN 480 240 In
FLAG 816 128 vss
IOPIN 816 128 In
FLAG -368 -208 vdd
IOPIN -368 -208 Out
FLAG -240 -208 vss
IOPIN -240 -208 Out
FLAG -96 -208 ve
IOPIN -96 -208 Out
FLAG 176 160 vmo
FLAG 576 176 vio
FLAG 1008 192 vso
FLAG -368 400 0
SYMBOL res 352 144 R90
WINDOW 0 0 56 VBottom 2
WINDOW 3 32 56 VTop 2
SYMATTR InstName R1
SYMATTR Value 1k
SYMBOL voltage -368 112 M0
WINDOW 3 -1379 -107 Left 2
SYMATTR Value PWL(TIME_SCALE_FACTOR=20m VALUE_SCALE_FACTOR=1 REPEAT FOREVER 0 0 50n 1 499.99995m 1 500.00005m -1 999.99995m -1 1 0 ENDREPEAT)
SYMATTR InstName VIN
SYMBOL voltage -368 -192 M0
SYMATTR InstName VDD
SYMATTR Value 10
SYMBOL voltage -240 -80 R180
WINDOW 0 24 96 Left 2
WINDOW 3 24 16 Left 2
SYMATTR InstName VSS
SYMATTR Value 10
SYMBOL Opamps\\opamp2 464 112 R0
SYMATTR InstName U1Int
SYMATTR Value tl082
SYMBOL Opamps\\opamp2 832 256 M180
SYMATTR InstName U2Schmitt
SYMATTR Value tl082
SYMBOL cap 496 48 R90
WINDOW 0 0 32 VBottom 2
WINDOW 3 32 32 VTop 2
SYMATTR InstName C1
SYMATTR Value 100n
SYMBOL res 720 160 R90
WINDOW 0 0 56 VBottom 2
WINDOW 3 32 56 VTop 2
SYMATTR InstName R2
SYMATTR Value 1k
SYMBOL res 912 48 R90
WINDOW 0 0 56 VBottom 2
WINDOW 3 32 56 VTop 2
SYMATTR InstName R3
SYMATTR Value 2k
SYMBOL AutoGenerated\\MPY634_BEHAVIORAL_0 -48 160 R0
SYMATTR InstName U1Mult
SYMBOL voltage -96 -192 M0
SYMATTR InstName VE
SYMATTR Value 10
SYMBOL voltage -368 256 M0
SYMATTR InstName Voff
SYMATTR Value 2
TEXT 56 -248 Left 2 !.inc tl082.cir
TEXT 56 -208 Left 2 !.tran 0 40m 0 10n
TEXT 56 -280 Left 2 !.inc mpy634.cir
