Version 4
SHEET 1 880 680
WIRE 64 80 64 48
WIRE 192 80 192 48
WIRE -208 96 -208 48
WIRE -208 208 -208 176
WIRE 64 208 64 160
WIRE 192 208 192 160
WIRE 80 352 64 352
WIRE 80 384 80 352
WIRE 48 400 0 400
WIRE 208 416 112 416
WIRE 368 416 288 416
WIRE 480 416 368 416
WIRE 48 432 -160 432
WIRE -160 464 -160 432
WIRE 80 464 80 448
WIRE 96 464 80 464
WIRE 368 464 368 416
WIRE 480 464 480 416
WIRE 368 576 368 528
WIRE 480 576 480 544
WIRE -160 592 -160 544
FLAG 64 208 0
FLAG 192 208 0
FLAG 64 48 vdd
FLAG 192 48 vss
FLAG 64 352 vdd
FLAG 96 464 vss
FLAG 368 576 0
FLAG 480 576 0
FLAG -160 592 0
FLAG -208 208 0
FLAG -208 48 vref
FLAG 0 400 vref
SYMBOL voltage 64 64 M0
SYMATTR InstName VDD1
SYMATTR Value 10
SYMBOL voltage 192 176 M180
WINDOW 0 24 96 Left 2
WINDOW 3 24 16 Left 2
SYMATTR InstName VSS1
SYMATTR Value 10
SYMBOL voltage -160 448 M0
WINDOW 123 0 0 Left 2
WINDOW 39 0 0 Left 2
WINDOW 3 24 44 Left 2
SYMATTR Value PULSE(-5 5 0 50u 50u 0 0.0001)
SYMATTR InstName VG1
SYMBOL Opamps\\opamp2 80 352 R0
SYMATTR InstName U1
SYMATTR Value tl082
SYMBOL ind 192 432 R270
WINDOW 0 32 56 VTop 2
WINDOW 3 5 56 VBottom 2
SYMATTR InstName L1
SYMATTR Value 10m
SYMBOL cap 352 464 R0
SYMATTR InstName C1
SYMATTR Value 10µ
SYMBOL res 464 448 R0
SYMATTR InstName R1
SYMATTR Value 1k
SYMBOL voltage -208 80 M0
WINDOW 123 0 0 Left 2
WINDOW 39 0 0 Left 2
SYMATTR InstName Vref
SYMATTR Value -1
TEXT 360 16 Left 2 !.inc tl082.cir
TEXT 368 112 Left 2 !.tran 7m
TEXT 360 16 Left 2 !.inc tl082.cir
