Version 4
SHEET 1 948 680
WIRE -64 -176 -64 -208
WIRE 64 -176 64 -208
WIRE -64 -48 -64 -96
WIRE 64 -48 64 -96
WIRE 128 48 96 48
WIRE 240 48 208 48
WIRE 176 112 160 112
WIRE 176 144 176 112
WIRE -32 160 -64 160
WIRE -16 160 -32 160
WIRE 96 160 96 48
WIRE 96 160 64 160
WIRE 144 160 96 160
WIRE 240 176 240 48
WIRE 240 176 208 176
WIRE 288 176 240 176
WIRE 144 192 112 192
WIRE -64 224 -64 160
WIRE 176 224 176 208
WIRE 192 224 176 224
WIRE -64 320 -64 304
WIRE 112 320 112 192
WIRE 112 320 -64 320
WIRE -64 352 -64 320
FLAG -64 352 0
FLAG -64 -48 0
FLAG 64 -48 0
FLAG -64 -208 vdd
FLAG 160 112 vdd
FLAG 64 -208 vss
FLAG 192 224 vss
FLAG -32 160 Vin
FLAG 288 176 Vout
IOPIN 288 176 Out
SYMBOL voltage -64 208 M0
WINDOW 123 0 0 Left 2
WINDOW 39 0 0 Left 2
SYMATTR InstName VG
SYMATTR Value SINE(0 0.9 1000)
SYMBOL voltage -64 -192 M0
SYMATTR InstName VDD
SYMATTR Value 10
SYMBOL voltage 64 -80 M180
WINDOW 0 24 96 Left 2
WINDOW 3 24 16 Left 2
SYMATTR InstName VSS
SYMATTR Value 10
SYMBOL Opamps\\opamp2 176 112 R0
SYMATTR InstName U1
SYMATTR Value tl082
SYMBOL res -32 176 R270
WINDOW 0 32 56 VTop 2
WINDOW 3 0 56 VBottom 2
SYMATTR InstName R1
SYMATTR Value 1k
SYMBOL res 112 64 R270
WINDOW 0 32 56 VTop 2
WINDOW 3 0 56 VBottom 2
SYMATTR InstName R2
SYMATTR Value 2.2k
TEXT 232 -240 Left 2 !.inc tl082.cir
TEXT 232 -192 Left 2 !.tran 4ms
