**$ENCRYPTED_LIB
**$INTERFACE
*TPS40200 spice model
*****************************************************************************
** This product is designed as an aid for customers of Texas Instruments.  			          **
** No warranties, either expressed or implied, with respect to this third 			          **
** party software (if any) or with respect to its fitness for any          			          **
** particular purpose is claimed by Texas Instruments or the author. The   			          **
** software (if any) is provided solely on an "as is" basis. The entire    			          **
** risk as to its quality and performance is with the customer             			          **
*****************************************************************************
*
* This model was developed for Texas Instruments Incorporated by:
*   AEi Systems, LLC
*   5777 W. Century Blvd., Suite 876
*   Los Angeles, California  90045
*
* This model is subject to change without notice. Neither Texas Instruments Incorporated 
* nor AEi Systems is responsible for updating this model.
* For more information regarding modeling services, model libraries and simulation 
* products, please call AEi Systems at (310) 216-1144, or contact AEi Systems by email: 
* info@AENG.com. Or visit AEi Systems on the web at http://www.AENG.com.
*
*****************************************************************************
*
* (C) Copyright 2008 Texas Instruments Incorporated. All rights reserved.
* Released by: Analog e-Lab Design Center, Texas Instruments Inc.
* Part: TPS40200
* Date: Nov/11/2008
* Model Type: Transient and Average
* Simulator: PSpice
* EVM Order Number: TPS40200EVM-001
* EVM Users Guide: SLVU147C, Revised March 2008
* Datasheet: slus659C, revised 2007
*
*****************************************************************************
*
* Updates:
*
* Revision B, 8/16/07
* Revision C, 10/16/07 - Updated average model
* Revision D, 01/10/08 - Switching model was updated for working on floating ground
* Revision E, 11/06/08 - Model updated for discretes.
*
* Release to Web.
*
*****************************************************************************
*
* Model was updated for working on floating ground. Jan. 10, 2008
*$
.SUBCKT TPS40200 RC SS COMP FB GND GDRV ISNS VDD
$CDNENCSTART
eee8c5c7a2bc4b01f045f303678664e7916da0bae22e8cb0bba041dd67c69ce448ea70148a9ac1670c8926c1ac5057c8ccfcd77bf87ca9dc1eaca7694673129d
5c08fd49646686df27943f52d3b47c5c6ed0fc18aa2f73ca92330892d0645ee7e21c1c620a05533a883d3c408d6666fd99fa2b4c2334af6b9adecb32747b0a98
42ab3a9c368d14ff167027ccfec12a846991ab756a97f5c3659de3a38b4f5977bc0a7b3610cbd0ffdee52e2f2139aa368ccd79c5acb38337700c80331de6393a
c8046b6c851b5de9dbb1537ddf233b5ac0d6bda5948b9f92644126c9831a96bd1d6b740caa77645e99692397418b64c327a4051a10b5e120dcd71699a28d731d
efb771a7bc683fd6fed69854e9f3c2d5160e7a9b3706bb86da589f020a0bae1d64c584a4ec5fbffb8cf522a6b5217ae4e8365f152162e3ed1f58c05794c01c41
f8e5cc8cc74620dbb3eec8eb8e215c92dee52e2f2139aa368ccd79c5acb383375539790def95e765692495bbf094ec808310f18d22a0bebcb463047b623d2e36
f656e99ae6e8c647dadea278c8000a01160e7a9b3706bb86da589f020a0bae1d64c584a4ec5fbffb8cf522a6b5217ae4e8365f152162e3ed1f58c05794c01c41
26cea498b446fba0cecabd69835aaf860bd4891b1297cfaa2e5be22e82e3011557d6ee028be31e1cfbe758963c4ba04dfa4235849697865dbe424aa0b9afdb8c
8d4378728875d477e7eb8546cf2f223dec418e4ad6ef0560ccabffc181363e7ea5e8f84780261c9a2e5be22e82e3011557d6ee028be31e1c0133a7b178fad7fd
8d4378728875d477b4849cf9b35993dc4dd2d25f8d43dd1460459344dd53ddf208e2560d86d09dfdf562e78474a33860bd337603d620422263f258c19e05cee3
670d4e9ab805effd3099ddfd49cb5a48f562e78474a33860bd337603d620422279f7957d7afc8a7ea35c19c7de258492a6f8f00643ec2e87dfdeb651620e2096
c2774e226091b9ce32eb1b888a0eb4763872be7942bf5276ae06ea5d5852a8d9574341227e16af6e160e7a9b3706bb86da589f020a0bae1d8afb9c1da6138659
a8dff82f3bc6eb2ec5b3bc678e2fcadb50be95b5851bb265f2c56dfe0122a418186300deac8aca1d9374b598c4b3d2230256cde700da9c92acd530759ac37c23
3d35a35d81cc0ddaaa4f2bb62771be506b784e39406eaac15720e784c8ddb31fc775212982eb49397a1e24c891fc7d40557fdc5d562f7ab45c7b2bfd5e81d1d8
fc0e4dd5f062e5809e9f6bc408509abd879e83caeebf430b644126c9831a96bd1d6b740caa77645e99692397418b64c327a4051a10b5e120dcd71699a28d731d
8d4378728875d477db6e42121a1c95c26991ab756a97f5c37fc880ce7c17e0907ab4918476251b1baf17933cdab6f1f62e5be22e82e3011510c62506ca9e3c6d
24ca7a7a7d8a4bcd9ba351c972f8011b1d6b740caa77645e99692397418b64c327a4051a10b5e120e12c558e9bd545062f6a2c170eb2bb861c22e793c60bd454
e59d18789e0e6896ac2c49376182fc50a440f3a5f3374222606bd47baa641e562c9d8d65eab6f7a0634f2b0e9663af3a7603af0b9555e8763dd9bd7b9a4c1b4a
def26bafb582b9a5f05680f1868b4075bc029589faa6297fba1068a07d65cedff562e78474a33860bd337603d620422279f7957d7afc8a7eee49b17abbfac5a8
8d4378728875d4771d2861ac8d2d9da96991ab756a97f5c37fc880ce7c17e0907ab4918476251b1b8771cafcca7ba946e44ba9f0fa6778903ed53eec55f2e514
dd1a6208d7e4ccee579043716e84afc612c082a5a50fc8234e57f5218cc190101bd996c6a7ee8685bf2642fe1f7bfdd6d27b345debf6910c8302835272dd2492
8d4378728875d477f6c6fa2e367701ee6991ab756a97f5c37fc880ce7c17e090860406fd561e55e79b8567e83eca9506e44ba9f0fa6778903ed53eec55f2e514
cd043439e69fc7cb405f02e86907eb780b0ad59b7d74773a0c176cc61129b9cdcee459861165c70fe847dda77d5f94431d6b740caa77645e17ab4273337fa9b3
5a3a11998f90ee7fc5b3bc678e2fcadb3147dd1056cbddba525c2eaee6cd90600784f0a9a53abccc70c6d6018781aeaf42aee549634034fbe20f6871274825d1
4d07e585ca71e4bcf562e78474a33860bd337603d620422279f7957d7afc8a7ea35c19c7de258492a6f8f00643ec2e873892476c546bf33cdf376ffd9d8b621f
9f3edb1ef712a2e5aa4f2bb62771be501d2f4ca9c46a187257f8ed7f5f18838140052cc143107639871fb15cd2636bd411b904d22aa0e594d6c4b0329bddfa1c
72d9ed4e716f05a466a639aa9b68aac69b8567e83eca9506e44ba9f0fa6778907bdec8e8d096b2046382cd0cc10211dd18f29956aaaf0946176cddf14b939af4
163bec0e7222eb7db03dd33b89c14e8147c8c193b3befb1bd6eecced45936968e44ba9f0fa6778907bdec8e8d096b2046382cd0cc10211dde9ea02128262dbb3
6990645b5c0e1377058148d64d6b80d338a465c44b554422cca72b347c5bb4b8d1780ecdc189f561e71f71e1875841711d6b740caa77645e17ab4273337fa9b3
d994cad26610dc20bcdfb020d617af1d8576dfaaaecddc3ffe6c72728eea5a4189208640006a0b971bd996c6a7ee8685bf2642fe1f7bfdd61a96e6b88e83154a
a6d7a917307371b87badc2d1b48c8f9e160e7a9b3706bb86da589f020a0bae1d64c584a4ec5fbffb8cf522a6b5217ae4e8365f152162e3ed1f58c05794c01c41
0d9b00c73e11ced2d235958d2a9761452f5aca672001647263f290afec100e3b209be140bc2ce4f68da4ca45c3085438071df8e4ee271271675da4e8ff6cc830
fa20c49d552b91381138542d11eaf6c4c775212982eb49397a1e24c891fc7d4091574bc83cf21b628ceb0d11f5d4cfdde71f71e187584171acbab5d43154bdb9
3ff4cd9f00550a16cf0bb1bb6cbdeed7333aa4ec8b89d95f2e5be22e82e3011557d6ee028be31e1cfbe758963c4ba04dfa4235849697865dbe424aa0b9afdb8c
d9bde007b98b47109688bf76dc073ca5e31304ebcccb103f474cb8c93d603386c1d4973df555716a3d2fb37e1b8a5ada641b1e529168d4e54b3fe181be5c78ea
d83f93040f5ccb81cb05cfa6f048ac5ad30c409f652f954b18213f6dc202448388591d0feb0c8d039cb1ed817b496f27e44ba9f0fa6778903ed53eec55f2e514
9f3026a47a4c3801b7db6aca05b33cd788591d0feb0c8d036bba4aefa65c61d5f562e78474a33860bd337603d620422279f7957d7afc8a7eee49b17abbfac5a8
3525d4815babfaa351df46bb663f9d6627f5ed486bbbcfc3e956be3bfe4794181f7b59932a7e364063f8349c92e846fc2e5be22e82e3011510c62506ca9e3c6d
b8e20885acaaa2eb1113088d473e976db669968a5170dbdce44ba9f0fa6778907bdec8e8d096b2046382cd0cc10211dd18f29956aaaf0946176cddf14b939af4
352dec60d79cbbc0058148d64d6b80d3e406b50cbe69c8644e659ebe836dce23186300deac8aca1d973219464a889c5b568938f4d4ef79f683952cd3c2608f94
fd84f7ca47805672309a5089f76ea8293b041cd4d26b2e091e9f829e5bda9ac29ce88295514c98e19091c4f15ff8f9c14996b50293833a11d667da53324ca38d
8392ba175d09f2f480ce02ddb253018d644988e2cf06f7ed160e7a9b3706bb86da589f020a0bae1d64c584a4ec5fbffb8cf522a6b5217ae4cb5ea8163ceda112
d4e0c5fd57e7035e14e552ae06e2f0aea440f3a5f337422264affc42cb0b83bb209be140bc2ce4f68bf4e972696c50ca7603af0b9555e8763dd9bd7b9a4c1b4a
$CDNENCFINISH
.ENDS
*$
.SUBCKT INVB 1  2 gnd
*           in out gnd
$CDNENCSTART
eee8c5c7a2bc4b01f045f303678664e7916da0bae22e8cb0bba041dd67c69ce448ea70148a9ac1670c8926c1ac5057c8ccfcd77bf87ca9dc1eaca7694673129d
5032f3d11ed9f5062ac853584b817689cc309afae6d9597d9c74e8cee23d87265d90f7121ee253f8fbd0d73e565cab4fefbf7de08501f3863dd9bd7b9a4c1b4a
cac4c15809a64712f562e78474a33860bd337603d620422279f7957d7afc8a7ea35c19c7de258492a6f8f00643ec2e873892476c546bf33cdf376ffd9d8b621f
ad167351c730d3610fa434613f11cb03f562e78474a33860bd337603d620422279f7957d7afc8a7ea35c19c7de258492a6f8f00643ec2e87dfdeb651620e2096
$CDNENCFINISH
.ENDS
*$
.SUBCKT OR2B402 1 2 3 gnd
*           A B Out gnd
$CDNENCSTART
eee8c5c7a2bc4b01f045f303678664e7916da0bae22e8cb0bba041dd67c69ce448ea70148a9ac1670c8926c1ac5057c8ccfcd77bf87ca9dc1eaca7694673129d
b8b7a2bedd06388d2ac853584b817689cc309afae6d9597dbc073db88e36100e827030ea562083d4ccf735d300a03dcd36e6a5c93ec6ea2140cf6c3d7ed112d1
6a695ab682fb26094d5b1b73307b1303e44ba9f0fa6778907bdec8e8d096b2046382cd0cc10211dd18f29956aaaf09460a6ae9340284ce809d8321f6c8073008
ed872a1db40d3a43f562e78474a33860bd337603d620422279f7957d7afc8a7ea35c19c7de258492a6f8f00643ec2e873892476c546bf33cdf376ffd9d8b621f
1a9edfe947f892360fa434613f11cb03f562e78474a33860bd337603d620422279f7957d7afc8a7ea35c19c7de258492a6f8f00643ec2e87dfdeb651620e2096
$CDNENCFINISH
.ENDS
*$
.SUBCKT FFLOP40200 1 2 11 12 5 6 Gnd
*CLK D R S QBAR Q
$CDNENCSTART
eee8c5c7a2bc4b01f045f303678664e7916da0bae22e8cb0bba041dd67c69ce448ea70148a9ac1670c8926c1ac5057c8ccfcd77bf87ca9dc1eaca7694673129d
fa80b2a445629ce59682e119e1a595c84b19065ea6b5317ce847dda77d5f94431d6b740caa77645e99692397418b64c327a4051a10b5e120dcd71699a28d731d
83d9faeb02840f624fee6e9e16a073d3965c5b52650c0d3d46c907e75ffa80f22e5be22e82e3011557d6ee028be31e1cfbe758963c4ba04db6cbb2c0ba301c57
11244341a8168b01f69308ced88f8e0b965c5b52650c0d3defc475b6737aad64e44ba9f0fa6778907bdec8e8d096b2046382cd0cc10211dde9ea02128262dbb3
6b0e583d7050b153bb8f53c2e20782eb965c5b52650c0d3df0675b26e099c3a7e44ba9f0fa6778907bdec8e8d096b2046382cd0cc10211dde9ea02128262dbb3
7a000cf174e86c768a025ae4314b20544b19065ea6b5317c303d7240d8c3139d2e5be22e82e3011557d6ee028be31e1cfbe758963c4ba04db6cbb2c0ba301c57
b5eee45b28fad787eda5667050f57fd6965c5b52650c0d3df0675b26e099c3a7e44ba9f0fa6778907bdec8e8d096b2046382cd0cc10211dde9ea02128262dbb3
70d9a5a54b58f53e3c256bd69f38b8fac78b6f1584e8980fe44ba9f0fa6778907bdec8e8d096b2046382cd0cc10211dd18f29956aaaf0946176cddf14b939af4
96f702f7295cc7413c256bd69f38b8fafcc5b4b387741d6d2e5be22e82e3011557d6ee028be31e1cfbe758963c4ba04dfa4235849697865dbe424aa0b9afdb8c
$CDNENCFINISH
.ENDS
*$
.SUBCKT NAND3402_0 1 2 3 4 Gnd
$CDNENCSTART
eee8c5c7a2bc4b01f045f303678664e7916da0bae22e8cb0bba041dd67c69ce448ea70148a9ac1670c8926c1ac5057c8ccfcd77bf87ca9dc1eaca7694673129d
c52b901273cd896a2ac853584b817689cc309afae6d9597dbc073db88e36100e77a001ac2c7a7bf6ccf735d300a03dcd36e6a5c93ec6ea21fe7404b38da188bb
ace460e08c1fc68656b05cdb7115c01d82d71dff477970bf11b904d22aa0e5941bd996c6a7ee8685bf2642fe1f7bfdd6d27b345debf6910c8302835272dd2492
4926a8c9eba9844be847dda77d5f94431d6b740caa77645e99692397418b64c327a4051a10b5e120e12c558e9bd545062f6a2c170eb2bb861c22e793c60bd454
cd734b66745a090f788717f7dcfbf2d7c55c8187f39b70be2e5be22e82e3011557d6ee028be31e1cfbe758963c4ba04dfa4235849697865dbe424aa0b9afdb8c
$CDNENCFINISH
.ENDS
*$
.SUBCKT NAND3402_1 1 2 3 4 Gnd
$CDNENCSTART
eee8c5c7a2bc4b01f045f303678664e7916da0bae22e8cb0bba041dd67c69ce448ea70148a9ac1670c8926c1ac5057c8ccfcd77bf87ca9dc1eaca7694673129d
c52b901273cd896a2ac853584b817689cc309afae6d9597dbc073db88e36100e77a001ac2c7a7bf6ccf735d300a03dcd36e6a5c93ec6ea21fe7404b38da188bb
ace460e08c1fc68656b05cdb7115c01d82d71dff477970bf11b904d22aa0e5941bd996c6a7ee8685bf2642fe1f7bfdd6d27b345debf6910c8302835272dd2492
4926a8c9eba9844be847dda77d5f94431d6b740caa77645e99692397418b64c327a4051a10b5e120e12c558e9bd545062f6a2c170eb2bb861c22e793c60bd454
cd734b66745a090f788717f7dcfbf2d7884d5fc5ff2e91782e5be22e82e3011557d6ee028be31e1cfbe758963c4ba04dfa4235849697865dbe424aa0b9afdb8c
$CDNENCFINISH
.ENDS
*$
.SUBCKT INV402 1 2 Gnd
$CDNENCSTART
eee8c5c7a2bc4b01f045f303678664e7916da0bae22e8cb0bba041dd67c69ce448ea70148a9ac1670c8926c1ac5057c8ccfcd77bf87ca9dc1eaca7694673129d
5032f3d11ed9f5062ac853584b817689cc309afae6d9597d9c74e8cee23d87265d90f7121ee253f8fbd0d73e565cab4fefbf7de08501f3863dd9bd7b9a4c1b4a
a2fe8e2b0789b11fe847dda77d5f94431d6b740caa77645e99692397418b64c327a4051a10b5e120e12c558e9bd545062f6a2c170eb2bb861c22e793c60bd454
c5426f553d95f42993171286997e428a160e7a9b3706bb86da589f020a0bae1d64c584a4ec5fbffb8cf522a6b5217ae4e8365f152162e3ed1f58c05794c01c41
$CDNENCFINISH
.ENDS
*$
.SUBCKT TPS402AMP  REF8 GND NINV FB  COMP ENABLE
*                  REF8 GND NINV INV OUT  ENABLE
* Q1 5 NINV 6 _Q1_MOD
$CDNENCSTART
eee8c5c7a2bc4b01f045f303678664e7916da0bae22e8cb0bba041dd67c69ce448ea70148a9ac1670c8926c1ac5057c8ccfcd77bf87ca9dc1eaca7694673129d
166af9f70fb66cf9f2ec2b2cf1e6c6654813c8d6ea1d0f88dee52e2f2139aa368ccd79c5acb383375539790def95e765692495bbf094ec803084fd8b3fab2de1
8d4378728875d477f5997e9a831e78a0ef73b26f6ae9018bd61947a02bad83702a2aa286a3f8c39f160e7a9b3706bb86da589f020a0bae1d8afb9c1da6138659
f15ac8dad6e2fd7b598fff3a2f523fd6ce507ecd0c82c41be44ba9f0fa6778907bdec8e8d096b2046382cd0cc10211dd18f29956aaaf0946176cddf14b939af4
8d4378728875d477ba8357b41b0209f4ef73b26f6ae9018bd61947a02bad83702a2aa286a3f8c39f160e7a9b3706bb86da589f020a0bae1d8afb9c1da6138659
a9c7a4bd6eebaede7feff39a19bbbddde21c1c620a05533a883d3c408d6666fd99fa2b4c2334af6b43bcaed821dac0792636880b6309e00b2080350a1e75f490
19aae4bb5029e827e7cdf495f9a745f4e21c1c620a05533a883d3c408d6666fd99fa2b4c2334af6b43bcaed821dac0792636880b6309e00b2080350a1e75f490
9113a64622940027925f4c66e998f294571415143e3e61681d6b740caa77645e99692397418b64c327a4051a10b5e120e12c558e9bd54506b53405955970a481
8d4378728875d477b475b0b89a2b04e7bbc78bca70531c38bcfc29fe31f4c188160e7a9b3706bb86da589f020a0bae1d64c584a4ec5fbffb504a6e02c585c24c
9d6988844345ac6470c6ecb405c9534d160e7a9b3706bb86da589f020a0bae1d64c584a4ec5fbffb8cf522a6b5217ae4e8365f152162e3ed1f58c05794c01c41
abbde1b79f17c850a9c30ced21f87370427e961148be97c41bd996c6a7ee8685bf2642fe1f7bfdd6d27b345debf6910ccad6ec531ffc0231687392d9675026f2
a409c9f49f071a26b33417276802d758160e7a9b3706bb86da589f020a0bae1d64c584a4ec5fbffb8cf522a6b5217ae4e8365f152162e3ed1f58c05794c01c41
8d4378728875d477d57c281ebffbb7d21bd996c6a7ee8685bf2642fe1f7bfdd6d27b345debf6910ccad6ec531ffc0231a254c7846896597aa54223e5e6d94669
3ed63196d23806b463b14e0cab00f7139aacae35e521587a1d6b740caa77645e99692397418b64c327a4051a10b5e120e12c558e9bd54506b53405955970a481
e748b72c107dc55a9e78c5ed82231df3f562e78474a33860bd337603d620422279f7957d7afc8a7ea35c19c7de258492a6f8f00643ec2e87dfdeb651620e2096
1dbc12715bb86361292cb38c7496c14ef562e78474a33860bd337603d620422279f7957d7afc8a7ea35c19c7de258492a6f8f00643ec2e87dfdeb651620e2096
48f4f1d20b7ddb0e0b2b419f14db5e72d5e1302d6e71d4f22e5be22e82e3011557d6ee028be31e1cfbe758963c4ba04dfa4235849697865dbe424aa0b9afdb8c
a01df7c0e3ae7ff98a8f6925cc68fcdee406b50cbe69c864e065714bd370559ef138cb654b97cbf4d6b75364c8e20c48ac58d74147b934287ccc0443c629ad57
73635883412b7811f76245872cd17b83160e7a9b3706bb86da589f020a0bae1d64c584a4ec5fbffb8cf522a6b5217ae4e8365f152162e3ed1f58c05794c01c41
5dda22caffd6738f31f7f0bfcbfd8b443147dd1056cbddba70d9225d06d5f0b6e8eaada58a47d6e01b0a04f090d059380256cde700da9c92acd530759ac37c23
65262e8ac855cd68ba7a789652e69a06108e528828f8c6701d6b740caa77645e99692397418b64c327a4051a10b5e120e12c558e9bd54506b53405955970a481
d7072740a938f0e722c2a8d764001bd94caae094e4be791b2390d581e4a88460cedc7dd361997faa072f24ce59395d8095baa93151a4d8c951abe8673932384d
42c0bbea27b6123db910a822e26a7d92698a4b0ac857c5af1f2886e0f82ae61829b92a3f819580e829cfc936d96b5180f562e78474a33860813d4795a4f9f626
b5da227165bd6c4b9874ccad01e58221f562e78474a33860bd337603d620422279f7957d7afc8a7ea35c19c7de258492a6f8f00643ec2e87dfdeb651620e2096
$CDNENCFINISH
.ENDS
*$
.SUBCKT 40200driver Vdin Out Vdd Gnd
$CDNENCSTART
eee8c5c7a2bc4b01f045f303678664e7916da0bae22e8cb0bba041dd67c69ce448ea70148a9ac1670c8926c1ac5057c8ccfcd77bf87ca9dc1eaca7694673129d
862e70000c098766224e89cec0cfc807ea5dbc08aa93444edee52e2f2139aa368ccd79c5acb383375539790def95e765692495bbf094ec803084fd8b3fab2de1
6844f924ca9ab5741c6395c7f8ac6f7566b05da2967c6b99e21c1c620a05533a883d3c408d6666fd99fa2b4c2334af6b43bcaed821dac07962c1c385987b6ba0
f7cd178f2c77211fad8313725dbc3f323556f1d0b3f63dae644126c9831a96bd1d6b740caa77645e99692397418b64c327a4051a10b5e120dcd71699a28d731d
97e872e59b3ec93dac7796962c5c5f2a6f82cfd6d92f82ca644126c9831a96bd1d6b740caa77645e99692397418b64c327a4051a10b5e120dcd71699a28d731d
cfb105cd13d128f2ded5fd6f2f1edfc6dee52e2f2139aa368ccd79c5acb383375539790def95e765692495bbf094ec808310f18d22a0bebcb463047b623d2e36
561b6e3f6c6216df9be4032058c9692a1bd996c6a7ee8685bf2642fe1f7bfdd6d27b345debf6910ccad6ec531ffc0231a254c7846896597aa54223e5e6d94669
5da580a22b1a304413a7808ec9dd4b86696be0dd9ed3f844c16c652bfa5a64b974c8e810f3d364965c86866a681f5283e51f69747a78969212773f22114e552e
316c44c557b0b41592f38f315016d4a394fae0e1ba6bf942d15de0d2b32f3901e21c1c620a05533a883d3c408d6666fd99fa2b4c2334af6b9adecb32747b0a98
fb747aeb8740185eddb9cb09fe955380696be0dd9ed3f8445012d6d2a9b4cda5ea7054c8617a59040550337bbff096cb11b904d22aa0e594d6c4b0329bddfa1c
b18c430f1733c0df317e53461679a847f562e78474a33860bd337603d620422279f7957d7afc8a7ea35c19c7de258492a6f8f00643ec2e87dfdeb651620e2096
8d4378728875d477c9bea5bb7fac531c61f7f6a71b7e7d198007b5e03cf57e18c569d0c1d5a3bef41d6b740caa77645e99692397418b64c3583f71a1fda39a0f
8d4378728875d477137b3b6745373b5261f7f6a71b7e7d19df68a88511a7f8711a1241981f05257a1bd996c6a7ee8685bf2642fe1f7bfdd61a96e6b88e83154a
8d4378728875d477414fb54776cd34f261f7f6a71b7e7d1940bcb525798ec77e946457926f35406cd6fbc9e11d26808b2e5be22e82e3011510c62506ca9e3c6d
8d4378728875d477dacf66d36b5b595661f7f6a71b7e7d190f4c33179a2508ca9212a02503e727aee21c1c620a05533a883d3c408d6666fd2a181b27d5bc91ea
e592225fd3d275719d39de3d522d7b762e5be22e82e3011557d6ee028be31e1cfbe758963c4ba04dfa4235849697865ddfb5d890eeffa87c81757831e7d57702
$CDNENCFINISH
.ENDS
.END
*
*
*
*The following presentst the AVERAGE model
*$
.SUBCKT TPS40200_AVG VDD Out FB Comp gnd
$CDNENCSTART
eee8c5c7a2bc4b01f045f303678664e7916da0bae22e8cb0bba041dd67c69ce448ea70148a9ac1670c8926c1ac5057c8ccfcd77bf87ca9dc1eaca7694673129d
069a64161dd6e92ed89ffa362fcbdfe16fdd67e6a88395b42e5be22e82e3011557d6ee028be31e1cfbe758963c4ba04dfa4235849697865dbe424aa0b9afdb8c
d7837ceea8f8c9f77badc2d1b48c8f9e160e7a9b3706bb86da589f020a0bae1d64c584a4ec5fbffb8cf522a6b5217ae4e8365f152162e3ed1f58c05794c01c41
547d1e5731e5c8da49849e4eac6035f61bd996c6a7ee8685bf2642fe1f7bfdd6d27b345debf6910ccad6ec531ffc0231a254c7846896597aa54223e5e6d94669
a027c895f2bef335a0dfcbe9811e90a7dee52e2f2139aa368ccd79c5acb383375539790def95e765692495bbf094ec808310f18d22a0bebcb463047b623d2e36
8d4378728875d477e7eb8546cf2f223dec418e4ad6ef0560ccabffc181363e7ea5e8f84780261c9a2e5be22e82e3011557d6ee028be31e1c0133a7b178fad7fd
16a184db89a8f9bd3099ddfd49cb5a48f562e78474a33860bd337603d620422279f7957d7afc8a7ea35c19c7de258492a6f8f00643ec2e87dfdeb651620e2096
cf9486303233cc7d3de47feef4c25986644126c9831a96bd1d6b740caa77645e99692397418b64c327a4051a10b5e120e12c558e9bd54506b53405955970a481
8d4378728875d477b4849cf9b35993dc4dd2d25f8d43dd1460459344dd53ddf208e2560d86d09dfdf562e78474a33860bd337603d620422263f258c19e05cee3
c580c2581f3eaceb36c44a61fa6fa6995f23ead947e3bbfa8e7dd046ba0f4137710c7fb14e2e9909c047ab526fcbf94668b7858ed60042a136a3bfae9b68a2bc
9777fb243c1e5177cbef540cb3d3dc131bd996c6a7ee8685bf2642fe1f7bfdd6d27b345debf6910ccad6ec531ffc0231a254c7846896597aa54223e5e6d94669
bdf52e419ecbaf13f1596e3b6ef25776679c6435e63fa9e3e21c1c620a05533a883d3c408d6666fd99fa2b4c2334af6b43bcaed821dac07962c1c385987b6ba0
21ca7b31c4078b38589e911e9a175b45d0ef89528d5c38ae1bd996c6a7ee8685bf2642fe1f7bfdd6d27b345debf6910ccad6ec531ffc0231687392d9675026f2
964385cbf263d2b52677961a80765a53f562e78474a33860bd337603d620422279f7957d7afc8a7ea35c19c7de258492a6f8f00643ec2e87dfdeb651620e2096
88f59dd6306caf7da55bcef21723ec86f562e78474a33860bd337603d620422279f7957d7afc8a7ea35c19c7de258492a6f8f00643ec2e87dfdeb651620e2096
406905ee2e01af6a089ff607ff9e0a790c0dfd78a237bcdfe44ba9f0fa6778907bdec8e8d096b2046382cd0cc10211dd18f29956aaaf0946176cddf14b939af4
8c1cb03d5864b4a42ac853584b8176892719f2597dd92bd6327bc4dc90c9d776c2356fa0b0fe3ea92e5be22e82e3011557d6ee028be31e1c0133a7b178fad7fd
*X1 5 2 LIMIT PARAMS: K=1 PLIM=1 NLIM=0
8c1d324d9998975629c1d209aa92aa9827e30f90fe5f995a107b558c508486957e07bc44602857d8160e7a9b3706bb86da589f020a0bae1d8afb9c1da6138659
*R10 gnd gnd1 1n
$CDNENCFINISH
.ENDS
*$
.SUBCKT FORWARD VINp Rtn Vc Vout Dr PARAMS: L=33u NC=1 NP=1 RB=10m F=1meg EFF=0.95 TS=0 DMAX=0.95
* VINp RTN VC VOUT Dr
*Used for voltage or current mode forward converters
*{L} Output inductance in Henries
*{NC} Current transformer turns ratio
*{NP} Power transformer turns ratio
*{F} Switching frequency in Hz
*{DMAX} Duty Cycle
*{EFF} efficiency
*{RB} Current transformer burden resistor in ohms
*{TS} Propagation delay time in the current loop
*
$CDNENCSTART
eee8c5c7a2bc4b01f045f303678664e7916da0bae22e8cb0bba041dd67c69ce448ea70148a9ac1670c8926c1ac5057c8ccfcd77bf87ca9dc1eaca7694673129d
de07d12f6585088ba213820bbd0d8c327c031c82c05156b0162b4d9c430d0d0f4e684d685ffd1be4c7ad591b99879d1311b904d22aa0e594d6c4b0329bddfa1c
*B1 IS INPUT CURRENT
e31923edd44138207479ba82316c9141fa16b58b2414befad5592602f411439aa1c61778d5bde3e23e376e4a6a7d3fa1160e7a9b3706bb86a9adcf07233b7260
*B2 IS PEAK INDUCTOR CURRENT
f5151206a3f5089a7479ba82316c9141696be0dd9ed3f8441ab8b04464dac714303921a03a258edab346727b6f30794b6001242c4e34a626438cbf3b4f7a6c35
0651b119a2ff028cdea05eee15b8b94cc638c705f33863f6d56b4ef911a4228c57ec5a03014fbc4611b904d22aa0e5941bd996c6a7ee86853666ad1d0eb4f725
*B3 IS MINIMUM INDUCTOR CURRENT
169fa74b3dae62bf7479ba82316c9141696be0dd9ed3f8442d3b7b001100290dea9abfeacb9251faeb17116d44c7b175ea9abfeacb9251fa32dd6d08bb32debd
5027f7ff181bce5cbc20f9965dbea68b7bce9ce7cd6f258e954ba8fdd20d7394040397452ddd04152e5be22e82e3011557d6ee028be31e1c0133a7b178fad7fd
018c415c30693cf0337aa36f612ee70552ce08f76fbb08c01887f0ba3ce034cb7b37480ff21729245027f7ff181bce5cbc20f9965dbea68b31c8ba0fde782eb7
e0e0caf8160266b7aa5bd6bd1e70b6c9dee52e2f2139aa368ccd79c5acb383375539790def95e765692495bbf094ec808310f18d22a0bebcb463047b623d2e36
*B4 IS OUTPUT CURRENT
54291fea29d1003a03772974871b4b4b04ae7fd8db9064418549cd5d7671352117db99cb3b2befe10185c5ccc0cc5d4c66fccfd94b13e5e3902393445363f951
de985c3defde1c717a31d032db38ae296443d35ba2b31c8bae3465fe1bfde6945bfd8fa2bc8864d2b2b3c756db48574c72183ceeb7c9e91b28579ccfb7399849
*B5 IS DUTY CYCLE
66c986cb98a1baffa9e878cf25b9d450167ba0e4b0606ad5429459c09b310fd6b1158fb92dd5855586dc498d13b1693f2e563adb1218d0e76ce07347a843268d
74f0f18d77ab6f48fb92f4c9303d3d39160e7a9b3706bb86da589f020a0bae1d64c584a4ec5fbffb8cf522a6b5217ae4e8365f152162e3ed1f58c05794c01c41
8e8bcc7e284ddb11ebb1122fb785bcc5dee52e2f2139aa368ccd79c5acb383375539790def95e765692495bbf094ec808310f18d22a0bebcb463047b623d2e36
d7072740a938f0e7ab32fd962613d3f701bbc0fbba807211d932529432703d89e21c1c620a05533a883d3c408d6666fd99fa2b4c2334af6b9adecb32747b0a98
d3ffc357879789fc98d7e8c99b08c8ff61b208a8c6eb78894ebead4a4052df8c25460125f124ea1fa95a3249b1e26701e71f71e187584171acbab5d43154bdb9
d59e47431d51ca2d6408f9d2cfceaedb2e5be22e82e3011557d6ee028be31e1cfbe758963c4ba04dfa4235849697865ddfb5d890eeffa87c81757831e7d57702
$CDNENCFINISH
.ENDS
*$
.SUBCKT DIVIDE40200 10   8   3
*Connections:  InN InD Out
* V4 = V1 / V2
* EB1 4 0 Value = { V(1) / V(2) }
$CDNENCSTART
eee8c5c7a2bc4b01f045f303678664e7916da0bae22e8cb0bba041dd67c69ce448ea70148a9ac1670c8926c1ac5057c8ccfcd77bf87ca9dc1eaca7694673129d
eb54d67263ebd1adb637731fe374428af562e78474a33860bd337603d620422279f7957d7afc8a7ea35c19c7de258492a6f8f00643ec2e87dfdeb651620e2096
7cab2c189818b6f8de50e8178874e5e09f30e0853e33a9c9e21c1c620a05533a883d3c408d6666fd99fa2b4c2334af6b43bcaed821dac07962c1c385987b6ba0
fe43564112d45ab1e0a2192016d231601614f8a47dcfd5801c3928b79cc3d5c0b452a590af3627e23b97eaec23b1e0d9dee52e2f2139aa36df6ce10923b9f7a6
a4a4f78b241ce61090ca381a5484c2f9dee52e2f2139aa368ccd79c5acb383375539790def95e765692495bbf094ec808310f18d22a0bebcb463047b623d2e36
a635ebb707624f0507d58182bdd3081d959b84f754dee25ce44ba9f0fa6778907bdec8e8d096b2046382cd0cc10211dd18f29956aaaf0946176cddf14b939af4
$CDNENCFINISH
.ENDS
*$
.SUBCKT GAIN40200  1 2 
*Connections: In Out
$CDNENCSTART
eee8c5c7a2bc4b01f045f303678664e7916da0bae22e8cb0bba041dd67c69ce448ea70148a9ac1670c8926c1ac5057c8ccfcd77bf87ca9dc1eaca7694673129d
c181159de9c83549dabf5fb799366580dee52e2f2139aa368ccd79c5acb383375539790def95e765692495bbf094ec808310f18d22a0bebcb463047b623d2e36
$CDNENCFINISH
.ENDS
*$
.END
