Version 4
SHEET 1 948 680
WIRE 256 64 80 64
WIRE 80 160 80 64
WIRE 144 160 80 160
WIRE 256 176 256 64
WIRE 256 176 208 176
WIRE 288 176 256 176
WIRE 0 192 -64 192
WIRE 144 192 0 192
WIRE -64 224 -64 192
WIRE -64 352 -64 304
FLAG -64 352 0
FLAG 0 192 Vin
FLAG 288 176 Vout
IOPIN 288 176 Out
SYMBOL voltage -64 208 M0
WINDOW 123 24 124 Left 2
WINDOW 39 0 0 Left 2
SYMATTR Value2 AC 1
SYMATTR InstName VG
SYMATTR Value SINE(0 1 1000 0 0 0)
SYMBOL Opamps\\opamp2 176 112 R0
SYMATTR InstName U1
SYMATTR Value tl082
TEXT 232 -240 Left 2 !.inc tl082.cir
TEXT -368 376 Left 2 !.tran 4ms
