Version 4
SHEET 1 2004 680
WIRE -304 -208 -304 -240
WIRE -544 -192 -544 -224
WIRE -416 -192 -416 -224
WIRE -544 -64 -544 -112
WIRE -416 -64 -416 -112
WIRE -304 -64 -304 -128
WIRE 96 32 -288 32
WIRE -208 96 -224 96
WIRE -208 128 -208 96
WIRE -288 144 -288 32
WIRE -240 144 -288 144
WIRE -112 160 -176 160
WIRE -48 160 -112 160
WIRE 96 160 96 32
WIRE 96 160 32 160
WIRE 224 160 96 160
WIRE 256 160 224 160
WIRE -512 176 -560 176
WIRE -384 176 -448 176
WIRE -240 176 -384 176
WIRE -208 208 -208 192
WIRE -192 208 -208 208
WIRE 96 208 96 160
WIRE 224 208 224 160
WIRE -384 272 -384 176
WIRE -256 272 -384 272
WIRE -112 272 -112 160
WIRE -112 272 -176 272
WIRE -384 304 -384 272
WIRE -384 416 -384 384
WIRE 96 416 96 272
WIRE 224 416 224 272
FLAG -544 -64 0
FLAG -416 -64 0
FLAG -544 -224 vdd
FLAG -224 96 vdd
FLAG -416 -224 vss
FLAG -192 208 vss
FLAG -384 416 0
FLAG 96 416 0
FLAG 224 416 0
FLAG 256 160 Vc
IOPIN 256 160 Out
FLAG -304 -64 0
FLAG -304 -240 tr
FLAG -560 176 tr
SYMBOL voltage -544 -208 M0
SYMATTR InstName VDD
SYMATTR Value 10
SYMBOL voltage -416 -96 M180
WINDOW 0 24 96 Left 2
WINDOW 3 24 16 Left 2
SYMATTR InstName VSS
SYMATTR Value 10
SYMBOL Opamps\\opamp2 -208 96 R0
SYMATTR InstName U1
SYMATTR Value tl082
SYMBOL res -272 288 R270
WINDOW 0 32 56 VTop 2
WINDOW 3 0 56 VBottom 2
SYMATTR InstName R1
SYMATTR Value 10000R
SYMBOL res -368 400 R180
WINDOW 0 36 76 Left 2
WINDOW 3 36 40 Left 2
SYMATTR InstName R2
SYMATTR Value 2200R
SYMBOL res 48 144 R90
WINDOW 0 0 56 VBottom 2
WINDOW 3 32 56 VTop 2
SYMATTR InstName R3
SYMATTR Value 20000R
SYMBOL cap 80 208 R0
SYMATTR InstName C1
SYMATTR Value 1µC
SYMBOL diode 208 208 R0
SYMATTR InstName D1
SYMBOL cap -448 160 R90
WINDOW 0 0 32 VBottom 2
WINDOW 3 32 32 VTop 2
SYMATTR InstName C2
SYMATTR Value 47µC
SYMBOL voltage -304 -224 R0
WINDOW 123 0 0 Left 0
WINDOW 39 0 0 Left 0
SYMATTR InstName Trigger
SYMATTR Value PWL(0ms 0 19.99ms 0 20.0ms -3 23.99ms -3 24.0ms 0 43.99ms 0 44.00ms 3 47.99ms 3 48.00ms 0 67.99ms 0 68.00ms -3 71.99ms -3 72.00ms 0 91.99ms 0 92.00ms 3 95.99ms 3 96.00ms 0 100ms 0)
TEXT 232 -240 Left 2 !.inc tl082.cir
TEXT 240 -184 Left 2 !.tran 101ms
