Version 4
SHEET 1 892 680
WIRE -288 -192 -288 -240
WIRE -144 -192 -144 -240
WIRE 176 -176 32 -176
WIRE 752 -176 256 -176
WIRE 224 -80 192 -80
WIRE 528 -80 512 -80
WIRE 800 -80 784 -80
WIRE -288 -64 -288 -112
WIRE -144 -64 -144 -112
WIRE 32 -48 32 -176
WIRE 64 -48 32 -48
WIRE 192 -48 192 -80
WIRE 192 -48 144 -48
WIRE 384 -48 368 -48
WIRE 512 -48 512 -80
WIRE 512 -48 448 -48
WIRE 640 -48 608 -48
WIRE 752 -48 752 -176
WIRE 752 -48 704 -48
WIRE 784 -48 784 -80
WIRE 784 -48 752 -48
WIRE 96 48 96 32
WIRE 32 64 32 -48
WIRE 64 64 32 64
WIRE 192 80 192 -48
WIRE 192 80 128 80
WIRE 224 80 192 80
WIRE 368 80 368 -48
WIRE 368 80 304 80
WIRE 400 80 368 80
WIRE 672 80 672 64
WIRE -224 96 -320 96
WIRE -80 96 -144 96
WIRE 32 96 -80 96
WIRE 64 96 32 96
WIRE 512 96 512 -48
WIRE 512 96 464 96
WIRE 608 96 608 -48
WIRE 608 96 592 96
WIRE 640 96 608 96
WIRE 400 112 368 112
WIRE 752 112 752 -48
WIRE 752 112 704 112
WIRE 96 128 96 112
WIRE 640 128 608 128
WIRE 368 144 368 112
WIRE 608 160 608 128
WIRE -320 192 -320 96
WIRE 32 208 32 176
WIRE -80 288 -80 176
WIRE 512 288 512 96
WIRE 512 288 -80 288
WIRE -320 304 -320 272
FLAG 608 160 0
FLAG 368 144 0
FLAG 32 208 0
FLAG -320 304 0
FLAG -144 -64 0
FLAG -288 -64 0
FLAG -288 -240 V+
FLAG -144 -240 V-
FLAG 96 128 V-
FLAG 432 128 V-
FLAG 672 144 V-
FLAG 96 32 V+
FLAG 432 64 V+
FLAG 672 64 V+
FLAG 224 -80 HP
IOPIN 224 -80 Out
FLAG 528 -80 BP
IOPIN 528 -80 Out
FLAG 800 -80 LP
IOPIN 800 -80 Out
SYMBOL res -128 80 R90
WINDOW 0 0 56 VBottom 2
WINDOW 3 32 56 VTop 2
SYMATTR InstName R1
SYMATTR Value 1k
SYMBOL res -64 192 R180
WINDOW 0 36 76 Left 2
WINDOW 3 36 40 Left 2
SYMATTR InstName R2
SYMATTR Value 1k
SYMBOL res 48 192 R180
WINDOW 0 36 76 Left 2
WINDOW 3 36 40 Left 2
SYMATTR InstName R3
SYMATTR Value 55,56
SYMBOL res 272 -192 R90
WINDOW 0 0 56 VBottom 2
WINDOW 3 32 56 VTop 2
SYMATTR InstName R4
SYMATTR Value 1k
SYMBOL res 160 -64 R90
WINDOW 0 0 56 VBottom 2
WINDOW 3 32 56 VTop 2
SYMATTR InstName R5
SYMATTR Value 1k
SYMBOL res 608 80 R90
WINDOW 0 0 56 VBottom 2
WINDOW 3 32 56 VTop 2
SYMATTR InstName R7
SYMATTR Value 2k
SYMBOL res 320 64 R90
WINDOW 0 0 56 VBottom 2
WINDOW 3 32 56 VTop 2
SYMATTR InstName R8
SYMATTR Value 500
SYMBOL cap 448 -64 R90
WINDOW 0 0 32 VBottom 2
WINDOW 3 31 30 VTop 2
SYMATTR InstName C1
SYMATTR Value 1µ
SYMBOL cap 704 -64 R90
WINDOW 0 0 32 VBottom 2
WINDOW 3 32 32 VTop 2
SYMATTR InstName C2
SYMATTR Value 1µ
SYMBOL voltage -320 176 R0
WINDOW 3 24 96 Invisible 2
WINDOW 123 24 124 Left 2
WINDOW 39 0 0 Left 0
SYMATTR Value SINE(0 1)
SYMATTR Value2 AC 1 0
SYMATTR InstName V1
SYMBOL voltage -288 -208 R0
WINDOW 123 0 0 Left 0
WINDOW 39 0 0 Left 0
SYMATTR InstName V2
SYMATTR Value 10
SYMBOL voltage -144 -96 R180
WINDOW 0 24 96 Left 2
WINDOW 3 24 16 Left 2
WINDOW 123 0 0 Left 0
WINDOW 39 0 0 Left 0
SYMATTR InstName V3
SYMATTR Value 10
SYMBOL Opamps\\opamp2 96 16 R0
SYMATTR InstName U1
SYMATTR Value tl082
SYMBOL Opamps\\opamp2 432 32 R0
SYMATTR InstName U2
SYMATTR Value tl082
SYMBOL Opamps\\opamp2 672 48 R0
SYMATTR InstName U3
SYMATTR Value tl082
TEXT 504 496 Left 2 !.ac dec 101 50 10k
TEXT 504 456 Left 2 !.inc tl082.cir
