Version 4
SHEET 1 2308 680
WIRE 112 -160 80 -160
WIRE 80 -128 80 -160
WIRE 80 -128 -96 -128
WIRE 352 -128 80 -128
WIRE -96 -96 -96 -128
WIRE 352 -32 352 -128
WIRE 80 16 80 -128
WIRE -96 32 -96 -16
WIRE 48 32 -96 32
WIRE 304 48 112 48
WIRE 48 64 0 64
WIRE 352 96 352 64
WIRE 384 96 352 96
WIRE 384 128 384 96
WIRE 384 128 304 128
WIRE 0 144 0 64
WIRE 112 144 0 144
WIRE 304 144 304 128
WIRE 304 144 192 144
WIRE 0 160 0 144
WIRE 304 160 304 144
FLAG 80 80 0
FLAG 192 -160 0
FLAG 304 240 0
FLAG 0 240 0
FLAG -96 96 0
SYMBOL Opamps\\opamp2 80 -16 R0
SYMATTR InstName U1
SYMATTR Value tl082
SYMBOL voltage 96 -160 R270
WINDOW 123 0 0 Left 0
WINDOW 39 0 0 Left 0
SYMATTR InstName V1
SYMATTR Value ""
SYMBOL zener -80 96 R180
WINDOW 0 24 64 Left 2
WINDOW 3 24 0 Left 2
SYMATTR InstName D2
SYMATTR Value 1N750
SYMBOL res -112 -112 R0
SYMATTR InstName R1
SYMATTR Value 2k
SYMBOL res -16 144 R0
SYMATTR InstName R2
SYMATTR Value 10k
SYMBOL res 208 128 R90
WINDOW 0 0 56 VBottom 2
WINDOW 3 32 56 VTop 2
SYMATTR InstName R3
SYMATTR Value 1k
SYMBOL res 288 144 R0
SYMATTR InstName R4
SYMATTR Value 1k
SYMBOL pmos4 304 -32 R0
SYMATTR InstName M2
TEXT 424 -288 Left 2 !.inc tl082.cir
TEXT 448 -208 Left 2 !.dc V1 0 20 1
